
This summary file was generated by TurbSim (from OpenFAST-v3.4.0) on 01-Apr-2024 at 23:25:11.


Runtime Options:

     43821  Random seed #1
    RANLUX  Type of random number generator
         F  Output binary HH turbulence parameters?
         F  Output formatted turbulence parameters?
         F  Output AeroDyn HH files?
         T  Output AeroDyn FF files?
         T  Output BLADED FF files?
         T  Output tower data?
         F  Output HAWC FF files?
         F  Output formatted FF files?
         F  Output coherent turbulence time step file?
 2 -   ALL  IEC turbulence models scaled to exact specified standard deviation


Turbine/Model Specifications:

        31  Vertical grid-point matrix dimension
        31  Horizontal grid-point matrix dimension
     0.073  Time step [seconds]
   630.000  Analysis time [seconds]
   630.000  Usable output time [seconds]
    90.000  Hub height [m]
   160.000  Grid height [m]
   160.000  Grid width [m]
     0.000  Vertical flow angle [degrees]
     0.000  Horizontal flow angle [degrees]


Meteorological Boundary Conditions:

    IECKAI  IEC Kaimal spectral model
         1  IEC standard: IEC 61400-1 Ed. 3: 2005
         A  IEC turbulence characteristic
       NTM  IEC Normal Turbulence Model
       N/A  IEC Extreme Turbulence Model (ETM) "c" parameter [m/s]
       PL   Wind profile type
    90.000  Reference height [m]
    10.000  Reference wind speed [m/s]
       N/A  Jet height [m]
     0.000  Power law exponent
     0.030  Surface roughness length [m]


Non-IEC Meteorological Boundary Conditions:

       N/A  Site latitude [degrees]
       N/A  Gradient Richardson number
       N/A  Friction or shear velocity [m/s]
       N/A  Mixing layer depth [m]
       N/A  Mean hub u'w' Reynolds stress
       N/A  Mean hub u'v' Reynolds stress
       N/A  Mean hub v'w' Reynolds stress


Spatial Coherence Models:

       IEC  u-component coherence model
   GENERAL  v-component coherence model
   GENERAL  w-component coherence model
(   12.000, 0.353E-03)  u-component coherence parameters
(   12.000,  0.00    )  v-component coherence parameters
(   12.000,  0.00    )  w-component coherence parameters
     0.000  Coherence exponent


You have requested that the following file(s) be generated:

   .\TurbSim_example\TurbSim.bts (AeroDyn/TurbSim full-field wind file)
   .\TurbSim_example\TurbSim.wnd (AeroDyn/BLADED full-field wnd file)
   .\TurbSim_example\TurbSim.twr (binary tower file)


Turbulence Simulation Scaling Parameter Summary:

   Turbulence model used                            =  IEC Kaimal
   Turbulence characteristic                        =  A
   IEC turbulence type                              =  Normal Turbulence Model
   IEC standard                                     =  IEC 61400-1 Ed. 3: 2005
   Mean wind speed at hub height                    =   10.000 m/s
   Expected value of turbulence intensity at 15 m/s =   16.000%
   Characteristic value of standard deviation       =    2.096 m/s
   Turbulence scale                                 =   42.000 m
   u-component integral scale                       =  340.200 m
   Coherency scale                                  =  340.200 m
   Characteristic value of hub turbulence intensity =   20.960%
   Gradient Richardson number                       =    0.000

   Wind profile type                                =  Power law
   Power law exponent                               =    0.000
   Mean shear across rotor disk                     =    0.000 (m/s)/m
   Assumed rotor diameter                           =  160.000 m
   Surface roughness length                         =    0.030 m

   Nyquist frequency of turbulent wind field        =    6.827 Hz

   Number of time steps in the FFT                  =     8602
   Number of time steps output                      =     8602
   Number of points simulated                       =      962


Mean Flow Angles:

   Vertical   =   0.0 degrees
   Horizontal =   0.0 degrees

Mean Wind Speed Profile:

   Height    Wind Speed   Horizontal Angle  Vertical Angle  U-comp (X)   V-comp (Y)   W-comp (Z)
     (m)        (m/s)         (degrees)       (degrees)       (m/s)        (m/s)        (m/s)   
   ------    ----------   ----------------  --------------  ----------   ----------   ----------
    170.0       10.00            0.00            0.00         10.00         0.00         0.00
    164.7       10.00            0.00            0.00         10.00         0.00         0.00
    159.3       10.00            0.00            0.00         10.00         0.00         0.00
    154.0       10.00            0.00            0.00         10.00         0.00         0.00
    148.7       10.00            0.00            0.00         10.00         0.00         0.00
    143.3       10.00            0.00            0.00         10.00         0.00         0.00
    138.0       10.00            0.00            0.00         10.00         0.00         0.00
    132.7       10.00            0.00            0.00         10.00         0.00         0.00
    127.3       10.00            0.00            0.00         10.00         0.00         0.00
    122.0       10.00            0.00            0.00         10.00         0.00         0.00
    116.7       10.00            0.00            0.00         10.00         0.00         0.00
    111.3       10.00            0.00            0.00         10.00         0.00         0.00
    106.0       10.00            0.00            0.00         10.00         0.00         0.00
    100.7       10.00            0.00            0.00         10.00         0.00         0.00
     95.3       10.00            0.00            0.00         10.00         0.00         0.00
     90.0       10.00            0.00            0.00         10.00         0.00         0.00
     84.7       10.00            0.00            0.00         10.00         0.00         0.00
     79.3       10.00            0.00            0.00         10.00         0.00         0.00
     74.0       10.00            0.00            0.00         10.00         0.00         0.00
     68.7       10.00            0.00            0.00         10.00         0.00         0.00
     63.3       10.00            0.00            0.00         10.00         0.00         0.00
     58.0       10.00            0.00            0.00         10.00         0.00         0.00
     52.7       10.00            0.00            0.00         10.00         0.00         0.00
     47.3       10.00            0.00            0.00         10.00         0.00         0.00
     42.0       10.00            0.00            0.00         10.00         0.00         0.00
     36.7       10.00            0.00            0.00         10.00         0.00         0.00
     31.3       10.00            0.00            0.00         10.00         0.00         0.00
     26.0       10.00            0.00            0.00         10.00         0.00         0.00
     20.7       10.00            0.00            0.00         10.00         0.00         0.00
     15.3       10.00            0.00            0.00         10.00         0.00         0.00
     10.0       10.00            0.00            0.00         10.00         0.00         0.00
      4.7       10.00            0.00            0.00         10.00         0.00         0.00


Harvested Random Seeds after Generation of the Random Numbers:

    115334491 K 1
            0 K 2


Scaling statistics from the hub grid point:

  Component  Target Sigma (m/s)  Simulated Sigma (m/s)  Scaling Factor
  ---------  ------------------  ---------------------  --------------
     u'             2.096                2.317                0.905
     v'             1.677                1.631                1.028
     w'             1.048                1.002                1.046


Hub-Height Simulated Turbulence Statistical Summary:

   Type of Wind        Min (m/s)   Mean (m/s)    Max (m/s)  Sigma (m/s)       TI (%)
   ----------------    ---------   ----------    ---------  -----------       ------
   Longitudinal (u)         4.38        10.00        18.25        2.096       20.960
   Lateral (v)             -5.09         0.00         6.27        1.677       16.768
   Vertical (w)            -3.93        -0.00         3.32        1.048       10.480
   U component              4.38        10.00        18.25        2.096       20.960
   V component             -5.09         0.00         6.27        1.677       16.768
   W component             -3.93        -0.00         3.32        1.048       10.480
   Horizontal (U&V)         4.38        10.14        18.25        2.089       20.599
   Total                    4.49        10.20        18.26        2.074       20.335

                       Min Reynolds     Mean Reynolds    Max Reynolds    Correlation
   Product             Stress (m/s)^2   Stress (m/s)^2   Stress (m/s)^2  Coefficient
   ----------------    --------------   --------------   --------------  -----------
   u'w'                    -13.892            -0.196            18.351        -0.089
   u'v'                    -15.478            -0.260            31.995        -0.074
   v'w'                    -12.985             0.047            14.069         0.027


   Friction Velocity (Ustar)  =      0.443 m/s
   Maximum Instantaneous TKE  =     34.136 (m/s)^2
   Maximum Instantaneous CTKE =     16.516 (m/s)^2


Grid Point Variance Summary:

   Y-coord  -80.00  -74.67  -69.33  -64.00  -58.67  -53.33  -48.00  -42.67  -37.33  -32.00  -26.67  -21.33  -16.00  -10.67   -5.33    0.00    5.33   10.67   16.00   21.33   26.67   32.00   37.33   42.67   48.00   53.33   58.67   64.00   69.33   74.67   80.00

   Height   Standard deviation at grid points for the u component:
   170.00    2.096   2.096   2.096   2.096   2.096   2.096   2.096   2.096   2.096   2.096   2.096   2.096   2.096   2.096   2.096   2.096   2.096   2.096   2.096   2.096   2.096   2.096   2.096   2.096   2.096   2.096   2.096   2.096   2.096   2.096   2.096
   164.67    2.096   2.096   2.096   2.096   2.096   2.096   2.096   2.096   2.096   2.096   2.096   2.096   2.096   2.096   2.096   2.096   2.096   2.096   2.096   2.096   2.096   2.096   2.096   2.096   2.096   2.096   2.096   2.096   2.096   2.096   2.096
   159.33    2.096   2.096   2.096   2.096   2.096   2.096   2.096   2.096   2.096   2.096   2.096   2.096   2.096   2.096   2.096   2.096   2.096   2.096   2.096   2.096   2.096   2.096   2.096   2.096   2.096   2.096   2.096   2.096   2.096   2.096   2.096
   154.00    2.096   2.096   2.096   2.096   2.096   2.096   2.096   2.096   2.096   2.096   2.096   2.096   2.096   2.096   2.096   2.096   2.096   2.096   2.096   2.096   2.096   2.096   2.096   2.096   2.096   2.096   2.096   2.096   2.096   2.096   2.096
   148.67    2.096   2.096   2.096   2.096   2.096   2.096   2.096   2.096   2.096   2.096   2.096   2.096   2.096   2.096   2.096   2.096   2.096   2.096   2.096   2.096   2.096   2.096   2.096   2.096   2.096   2.096   2.096   2.096   2.096   2.096   2.096
   143.33    2.096   2.096   2.096   2.096   2.096   2.096   2.096   2.096   2.096   2.096   2.096   2.096   2.096   2.096   2.096   2.096   2.096   2.096   2.096   2.096   2.096   2.096   2.096   2.096   2.096   2.096   2.096   2.096   2.096   2.096   2.096
   138.00    2.096   2.096   2.096   2.096   2.096   2.096   2.096   2.096   2.096   2.096   2.096   2.096   2.096   2.096   2.096   2.096   2.096   2.096   2.096   2.096   2.096   2.096   2.096   2.096   2.096   2.096   2.096   2.096   2.096   2.096   2.096
   132.67    2.096   2.096   2.096   2.096   2.096   2.096   2.096   2.096   2.096   2.096   2.096   2.096   2.096   2.096   2.096   2.096   2.096   2.096   2.096   2.096   2.096   2.096   2.096   2.096   2.096   2.096   2.096   2.096   2.096   2.096   2.096
   127.33    2.096   2.096   2.096   2.096   2.096   2.096   2.096   2.096   2.096   2.096   2.096   2.096   2.096   2.096   2.096   2.096   2.096   2.096   2.096   2.096   2.096   2.096   2.096   2.096   2.096   2.096   2.096   2.096   2.096   2.096   2.096
   122.00    2.096   2.096   2.096   2.096   2.096   2.096   2.096   2.096   2.096   2.096   2.096   2.096   2.096   2.096   2.096   2.096   2.096   2.096   2.096   2.096   2.096   2.096   2.096   2.096   2.096   2.096   2.096   2.096   2.096   2.096   2.096
   116.67    2.096   2.096   2.096   2.096   2.096   2.096   2.096   2.096   2.096   2.096   2.096   2.096   2.096   2.096   2.096   2.096   2.096   2.096   2.096   2.096   2.096   2.096   2.096   2.096   2.096   2.096   2.096   2.096   2.096   2.096   2.096
   111.33    2.096   2.096   2.096   2.096   2.096   2.096   2.096   2.096   2.096   2.096   2.096   2.096   2.096   2.096   2.096   2.096   2.096   2.096   2.096   2.096   2.096   2.096   2.096   2.096   2.096   2.096   2.096   2.096   2.096   2.096   2.096
   106.00    2.096   2.096   2.096   2.096   2.096   2.096   2.096   2.096   2.096   2.096   2.096   2.096   2.096   2.096   2.096   2.096   2.096   2.096   2.096   2.096   2.096   2.096   2.096   2.096   2.096   2.096   2.096   2.096   2.096   2.096   2.096
   100.67    2.096   2.096   2.096   2.096   2.096   2.096   2.096   2.096   2.096   2.096   2.096   2.096   2.096   2.096   2.096   2.096   2.096   2.096   2.096   2.096   2.096   2.096   2.096   2.096   2.096   2.096   2.096   2.096   2.096   2.096   2.096
    95.33    2.096   2.096   2.096   2.096   2.096   2.096   2.096   2.096   2.096   2.096   2.096   2.096   2.096   2.096   2.096   2.096   2.096   2.096   2.096   2.096   2.096   2.096   2.096   2.096   2.096   2.096   2.096   2.096   2.096   2.096   2.096
    90.00    2.096   2.096   2.096   2.096   2.096   2.096   2.096   2.096   2.096   2.096   2.096   2.096   2.096   2.096   2.096   2.096   2.096   2.096   2.096   2.096   2.096   2.096   2.096   2.096   2.096   2.096   2.096   2.096   2.096   2.096   2.096
    84.67    2.096   2.096   2.096   2.096   2.096   2.096   2.096   2.096   2.096   2.096   2.096   2.096   2.096   2.096   2.096   2.096   2.096   2.096   2.096   2.096   2.096   2.096   2.096   2.096   2.096   2.096   2.096   2.096   2.096   2.096   2.096
    79.33    2.096   2.096   2.096   2.096   2.096   2.096   2.096   2.096   2.096   2.096   2.096   2.096   2.096   2.096   2.096   2.096   2.096   2.096   2.096   2.096   2.096   2.096   2.096   2.096   2.096   2.096   2.096   2.096   2.096   2.096   2.096
    74.00    2.096   2.096   2.096   2.096   2.096   2.096   2.096   2.096   2.096   2.096   2.096   2.096   2.096   2.096   2.096   2.096   2.096   2.096   2.096   2.096   2.096   2.096   2.096   2.096   2.096   2.096   2.096   2.096   2.096   2.096   2.096
    68.67    2.096   2.096   2.096   2.096   2.096   2.096   2.096   2.096   2.096   2.096   2.096   2.096   2.096   2.096   2.096   2.096   2.096   2.096   2.096   2.096   2.096   2.096   2.096   2.096   2.096   2.096   2.096   2.096   2.096   2.096   2.096
    63.33    2.096   2.096   2.096   2.096   2.096   2.096   2.096   2.096   2.096   2.096   2.096   2.096   2.096   2.096   2.096   2.096   2.096   2.096   2.096   2.096   2.096   2.096   2.096   2.096   2.096   2.096   2.096   2.096   2.096   2.096   2.096
    58.00    2.096   2.096   2.096   2.096   2.096   2.096   2.096   2.096   2.096   2.096   2.096   2.096   2.096   2.096   2.096   2.096   2.096   2.096   2.096   2.096   2.096   2.096   2.096   2.096   2.096   2.096   2.096   2.096   2.096   2.096   2.096
    52.67    2.096   2.096   2.096   2.096   2.096   2.096   2.096   2.096   2.096   2.096   2.096   2.096   2.096   2.096   2.096   2.096   2.096   2.096   2.096   2.096   2.096   2.096   2.096   2.096   2.096   2.096   2.096   2.096   2.096   2.096   2.096
    47.33    2.096   2.096   2.096   2.096   2.096   2.096   2.096   2.096   2.096   2.096   2.096   2.096   2.096   2.096   2.096   2.096   2.096   2.096   2.096   2.096   2.096   2.096   2.096   2.096   2.096   2.096   2.096   2.096   2.096   2.096   2.096
    42.00    2.096   2.096   2.096   2.096   2.096   2.096   2.096   2.096   2.096   2.096   2.096   2.096   2.096   2.096   2.096   2.096   2.096   2.096   2.096   2.096   2.096   2.096   2.096   2.096   2.096   2.096   2.096   2.096   2.096   2.096   2.096
    36.67    2.096   2.096   2.096   2.096   2.096   2.096   2.096   2.096   2.096   2.096   2.096   2.096   2.096   2.096   2.096   2.096   2.096   2.096   2.096   2.096   2.096   2.096   2.096   2.096   2.096   2.096   2.096   2.096   2.096   2.096   2.096
    31.33    2.096   2.096   2.096   2.096   2.096   2.096   2.096   2.096   2.096   2.096   2.096   2.096   2.096   2.096   2.096   2.096   2.096   2.096   2.096   2.096   2.096   2.096   2.096   2.096   2.096   2.096   2.096   2.096   2.096   2.096   2.096
    26.00    2.096   2.096   2.096   2.096   2.096   2.096   2.096   2.096   2.096   2.096   2.096   2.096   2.096   2.096   2.096   2.096   2.096   2.096   2.096   2.096   2.096   2.096   2.096   2.096   2.096   2.096   2.096   2.096   2.096   2.096   2.096
    20.67    2.096   2.096   2.096   2.096   2.096   2.096   2.096   2.096   2.096   2.096   2.096   2.096   2.096   2.096   2.096   2.096   2.096   2.096   2.096   2.096   2.096   2.096   2.096   2.096   2.096   2.096   2.096   2.096   2.096   2.096   2.096
    15.33    2.096   2.096   2.096   2.096   2.096   2.096   2.096   2.096   2.096   2.096   2.096   2.096   2.096   2.096   2.096   2.096   2.096   2.096   2.096   2.096   2.096   2.096   2.096   2.096   2.096   2.096   2.096   2.096   2.096   2.096   2.096
    10.00    2.096   2.096   2.096   2.096   2.096   2.096   2.096   2.096   2.096   2.096   2.096   2.096   2.096   2.096   2.096   2.096   2.096   2.096   2.096   2.096   2.096   2.096   2.096   2.096   2.096   2.096   2.096   2.096   2.096   2.096   2.096

   Height   Standard deviation at grid points for the v component:
   170.00    1.677   1.677   1.677   1.677   1.677   1.677   1.677   1.677   1.677   1.677   1.677   1.677   1.677   1.677   1.677   1.677   1.677   1.677   1.677   1.677   1.677   1.677   1.677   1.677   1.677   1.677   1.677   1.677   1.677   1.677   1.677
   164.67    1.677   1.677   1.677   1.677   1.677   1.677   1.677   1.677   1.677   1.677   1.677   1.677   1.677   1.677   1.677   1.677   1.677   1.677   1.677   1.677   1.677   1.677   1.677   1.677   1.677   1.677   1.677   1.677   1.677   1.677   1.677
   159.33    1.677   1.677   1.677   1.677   1.677   1.677   1.677   1.677   1.677   1.677   1.677   1.677   1.677   1.677   1.677   1.677   1.677   1.677   1.677   1.677   1.677   1.677   1.677   1.677   1.677   1.677   1.677   1.677   1.677   1.677   1.677
   154.00    1.677   1.677   1.677   1.677   1.677   1.677   1.677   1.677   1.677   1.677   1.677   1.677   1.677   1.677   1.677   1.677   1.677   1.677   1.677   1.677   1.677   1.677   1.677   1.677   1.677   1.677   1.677   1.677   1.677   1.677   1.677
   148.67    1.677   1.677   1.677   1.677   1.677   1.677   1.677   1.677   1.677   1.677   1.677   1.677   1.677   1.677   1.677   1.677   1.677   1.677   1.677   1.677   1.677   1.677   1.677   1.677   1.677   1.677   1.677   1.677   1.677   1.677   1.677
   143.33    1.677   1.677   1.677   1.677   1.677   1.677   1.677   1.677   1.677   1.677   1.677   1.677   1.677   1.677   1.677   1.677   1.677   1.677   1.677   1.677   1.677   1.677   1.677   1.677   1.677   1.677   1.677   1.677   1.677   1.677   1.677
   138.00    1.677   1.677   1.677   1.677   1.677   1.677   1.677   1.677   1.677   1.677   1.677   1.677   1.677   1.677   1.677   1.677   1.677   1.677   1.677   1.677   1.677   1.677   1.677   1.677   1.677   1.677   1.677   1.677   1.677   1.677   1.677
   132.67    1.677   1.677   1.677   1.677   1.677   1.677   1.677   1.677   1.677   1.677   1.677   1.677   1.677   1.677   1.677   1.677   1.677   1.677   1.677   1.677   1.677   1.677   1.677   1.677   1.677   1.677   1.677   1.677   1.677   1.677   1.677
   127.33    1.677   1.677   1.677   1.677   1.677   1.677   1.677   1.677   1.677   1.677   1.677   1.677   1.677   1.677   1.677   1.677   1.677   1.677   1.677   1.677   1.677   1.677   1.677   1.677   1.677   1.677   1.677   1.677   1.677   1.677   1.677
   122.00    1.677   1.677   1.677   1.677   1.677   1.677   1.677   1.677   1.677   1.677   1.677   1.677   1.677   1.677   1.677   1.677   1.677   1.677   1.677   1.677   1.677   1.677   1.677   1.677   1.677   1.677   1.677   1.677   1.677   1.677   1.677
   116.67    1.677   1.677   1.677   1.677   1.677   1.677   1.677   1.677   1.677   1.677   1.677   1.677   1.677   1.677   1.677   1.677   1.677   1.677   1.677   1.677   1.677   1.677   1.677   1.677   1.677   1.677   1.677   1.677   1.677   1.677   1.677
   111.33    1.677   1.677   1.677   1.677   1.677   1.677   1.677   1.677   1.677   1.677   1.677   1.677   1.677   1.677   1.677   1.677   1.677   1.677   1.677   1.677   1.677   1.677   1.677   1.677   1.677   1.677   1.677   1.677   1.677   1.677   1.677
   106.00    1.677   1.677   1.677   1.677   1.677   1.677   1.677   1.677   1.677   1.677   1.677   1.677   1.677   1.677   1.677   1.677   1.677   1.677   1.677   1.677   1.677   1.677   1.677   1.677   1.677   1.677   1.677   1.677   1.677   1.677   1.677
   100.67    1.677   1.677   1.677   1.677   1.677   1.677   1.677   1.677   1.677   1.677   1.677   1.677   1.677   1.677   1.677   1.677   1.677   1.677   1.677   1.677   1.677   1.677   1.677   1.677   1.677   1.677   1.677   1.677   1.677   1.677   1.677
    95.33    1.677   1.677   1.677   1.677   1.677   1.677   1.677   1.677   1.677   1.677   1.677   1.677   1.677   1.677   1.677   1.677   1.677   1.677   1.677   1.677   1.677   1.677   1.677   1.677   1.677   1.677   1.677   1.677   1.677   1.677   1.677
    90.00    1.677   1.677   1.677   1.677   1.677   1.677   1.677   1.677   1.677   1.677   1.677   1.677   1.677   1.677   1.677   1.677   1.677   1.677   1.677   1.677   1.677   1.677   1.677   1.677   1.677   1.677   1.677   1.677   1.677   1.677   1.677
    84.67    1.677   1.677   1.677   1.677   1.677   1.677   1.677   1.677   1.677   1.677   1.677   1.677   1.677   1.677   1.677   1.677   1.677   1.677   1.677   1.677   1.677   1.677   1.677   1.677   1.677   1.677   1.677   1.677   1.677   1.677   1.677
    79.33    1.677   1.677   1.677   1.677   1.677   1.677   1.677   1.677   1.677   1.677   1.677   1.677   1.677   1.677   1.677   1.677   1.677   1.677   1.677   1.677   1.677   1.677   1.677   1.677   1.677   1.677   1.677   1.677   1.677   1.677   1.677
    74.00    1.677   1.677   1.677   1.677   1.677   1.677   1.677   1.677   1.677   1.677   1.677   1.677   1.677   1.677   1.677   1.677   1.677   1.677   1.677   1.677   1.677   1.677   1.677   1.677   1.677   1.677   1.677   1.677   1.677   1.677   1.677
    68.67    1.677   1.677   1.677   1.677   1.677   1.677   1.677   1.677   1.677   1.677   1.677   1.677   1.677   1.677   1.677   1.677   1.677   1.677   1.677   1.677   1.677   1.677   1.677   1.677   1.677   1.677   1.677   1.677   1.677   1.677   1.677
    63.33    1.677   1.677   1.677   1.677   1.677   1.677   1.677   1.677   1.677   1.677   1.677   1.677   1.677   1.677   1.677   1.677   1.677   1.677   1.677   1.677   1.677   1.677   1.677   1.677   1.677   1.677   1.677   1.677   1.677   1.677   1.677
    58.00    1.677   1.677   1.677   1.677   1.677   1.677   1.677   1.677   1.677   1.677   1.677   1.677   1.677   1.677   1.677   1.677   1.677   1.677   1.677   1.677   1.677   1.677   1.677   1.677   1.677   1.677   1.677   1.677   1.677   1.677   1.677
    52.67    1.677   1.677   1.677   1.677   1.677   1.677   1.677   1.677   1.677   1.677   1.677   1.677   1.677   1.677   1.677   1.677   1.677   1.677   1.677   1.677   1.677   1.677   1.677   1.677   1.677   1.677   1.677   1.677   1.677   1.677   1.677
    47.33    1.677   1.677   1.677   1.677   1.677   1.677   1.677   1.677   1.677   1.677   1.677   1.677   1.677   1.677   1.677   1.677   1.677   1.677   1.677   1.677   1.677   1.677   1.677   1.677   1.677   1.677   1.677   1.677   1.677   1.677   1.677
    42.00    1.677   1.677   1.677   1.677   1.677   1.677   1.677   1.677   1.677   1.677   1.677   1.677   1.677   1.677   1.677   1.677   1.677   1.677   1.677   1.677   1.677   1.677   1.677   1.677   1.677   1.677   1.677   1.677   1.677   1.677   1.677
    36.67    1.677   1.677   1.677   1.677   1.677   1.677   1.677   1.677   1.677   1.677   1.677   1.677   1.677   1.677   1.677   1.677   1.677   1.677   1.677   1.677   1.677   1.677   1.677   1.677   1.677   1.677   1.677   1.677   1.677   1.677   1.677
    31.33    1.677   1.677   1.677   1.677   1.677   1.677   1.677   1.677   1.677   1.677   1.677   1.677   1.677   1.677   1.677   1.677   1.677   1.677   1.677   1.677   1.677   1.677   1.677   1.677   1.677   1.677   1.677   1.677   1.677   1.677   1.677
    26.00    1.677   1.677   1.677   1.677   1.677   1.677   1.677   1.677   1.677   1.677   1.677   1.677   1.677   1.677   1.677   1.677   1.677   1.677   1.677   1.677   1.677   1.677   1.677   1.677   1.677   1.677   1.677   1.677   1.677   1.677   1.677
    20.67    1.677   1.677   1.677   1.677   1.677   1.677   1.677   1.677   1.677   1.677   1.677   1.677   1.677   1.677   1.677   1.677   1.677   1.677   1.677   1.677   1.677   1.677   1.677   1.677   1.677   1.677   1.677   1.677   1.677   1.677   1.677
    15.33    1.677   1.677   1.677   1.677   1.677   1.677   1.677   1.677   1.677   1.677   1.677   1.677   1.677   1.677   1.677   1.677   1.677   1.677   1.677   1.677   1.677   1.677   1.677   1.677   1.677   1.677   1.677   1.677   1.677   1.677   1.677
    10.00    1.677   1.677   1.677   1.677   1.677   1.677   1.677   1.677   1.677   1.677   1.677   1.677   1.677   1.677   1.677   1.677   1.677   1.677   1.677   1.677   1.677   1.677   1.677   1.677   1.677   1.677   1.677   1.677   1.677   1.677   1.677

   Height   Standard deviation at grid points for the w component:
   170.00    1.048   1.048   1.048   1.048   1.048   1.048   1.048   1.048   1.048   1.048   1.048   1.048   1.048   1.048   1.048   1.048   1.048   1.048   1.048   1.048   1.048   1.048   1.048   1.048   1.048   1.048   1.048   1.048   1.048   1.048   1.048
   164.67    1.048   1.048   1.048   1.048   1.048   1.048   1.048   1.048   1.048   1.048   1.048   1.048   1.048   1.048   1.048   1.048   1.048   1.048   1.048   1.048   1.048   1.048   1.048   1.048   1.048   1.048   1.048   1.048   1.048   1.048   1.048
   159.33    1.048   1.048   1.048   1.048   1.048   1.048   1.048   1.048   1.048   1.048   1.048   1.048   1.048   1.048   1.048   1.048   1.048   1.048   1.048   1.048   1.048   1.048   1.048   1.048   1.048   1.048   1.048   1.048   1.048   1.048   1.048
   154.00    1.048   1.048   1.048   1.048   1.048   1.048   1.048   1.048   1.048   1.048   1.048   1.048   1.048   1.048   1.048   1.048   1.048   1.048   1.048   1.048   1.048   1.048   1.048   1.048   1.048   1.048   1.048   1.048   1.048   1.048   1.048
   148.67    1.048   1.048   1.048   1.048   1.048   1.048   1.048   1.048   1.048   1.048   1.048   1.048   1.048   1.048   1.048   1.048   1.048   1.048   1.048   1.048   1.048   1.048   1.048   1.048   1.048   1.048   1.048   1.048   1.048   1.048   1.048
   143.33    1.048   1.048   1.048   1.048   1.048   1.048   1.048   1.048   1.048   1.048   1.048   1.048   1.048   1.048   1.048   1.048   1.048   1.048   1.048   1.048   1.048   1.048   1.048   1.048   1.048   1.048   1.048   1.048   1.048   1.048   1.048
   138.00    1.048   1.048   1.048   1.048   1.048   1.048   1.048   1.048   1.048   1.048   1.048   1.048   1.048   1.048   1.048   1.048   1.048   1.048   1.048   1.048   1.048   1.048   1.048   1.048   1.048   1.048   1.048   1.048   1.048   1.048   1.048
   132.67    1.048   1.048   1.048   1.048   1.048   1.048   1.048   1.048   1.048   1.048   1.048   1.048   1.048   1.048   1.048   1.048   1.048   1.048   1.048   1.048   1.048   1.048   1.048   1.048   1.048   1.048   1.048   1.048   1.048   1.048   1.048
   127.33    1.048   1.048   1.048   1.048   1.048   1.048   1.048   1.048   1.048   1.048   1.048   1.048   1.048   1.048   1.048   1.048   1.048   1.048   1.048   1.048   1.048   1.048   1.048   1.048   1.048   1.048   1.048   1.048   1.048   1.048   1.048
   122.00    1.048   1.048   1.048   1.048   1.048   1.048   1.048   1.048   1.048   1.048   1.048   1.048   1.048   1.048   1.048   1.048   1.048   1.048   1.048   1.048   1.048   1.048   1.048   1.048   1.048   1.048   1.048   1.048   1.048   1.048   1.048
   116.67    1.048   1.048   1.048   1.048   1.048   1.048   1.048   1.048   1.048   1.048   1.048   1.048   1.048   1.048   1.048   1.048   1.048   1.048   1.048   1.048   1.048   1.048   1.048   1.048   1.048   1.048   1.048   1.048   1.048   1.048   1.048
   111.33    1.048   1.048   1.048   1.048   1.048   1.048   1.048   1.048   1.048   1.048   1.048   1.048   1.048   1.048   1.048   1.048   1.048   1.048   1.048   1.048   1.048   1.048   1.048   1.048   1.048   1.048   1.048   1.048   1.048   1.048   1.048
   106.00    1.048   1.048   1.048   1.048   1.048   1.048   1.048   1.048   1.048   1.048   1.048   1.048   1.048   1.048   1.048   1.048   1.048   1.048   1.048   1.048   1.048   1.048   1.048   1.048   1.048   1.048   1.048   1.048   1.048   1.048   1.048
   100.67    1.048   1.048   1.048   1.048   1.048   1.048   1.048   1.048   1.048   1.048   1.048   1.048   1.048   1.048   1.048   1.048   1.048   1.048   1.048   1.048   1.048   1.048   1.048   1.048   1.048   1.048   1.048   1.048   1.048   1.048   1.048
    95.33    1.048   1.048   1.048   1.048   1.048   1.048   1.048   1.048   1.048   1.048   1.048   1.048   1.048   1.048   1.048   1.048   1.048   1.048   1.048   1.048   1.048   1.048   1.048   1.048   1.048   1.048   1.048   1.048   1.048   1.048   1.048
    90.00    1.048   1.048   1.048   1.048   1.048   1.048   1.048   1.048   1.048   1.048   1.048   1.048   1.048   1.048   1.048   1.048   1.048   1.048   1.048   1.048   1.048   1.048   1.048   1.048   1.048   1.048   1.048   1.048   1.048   1.048   1.048
    84.67    1.048   1.048   1.048   1.048   1.048   1.048   1.048   1.048   1.048   1.048   1.048   1.048   1.048   1.048   1.048   1.048   1.048   1.048   1.048   1.048   1.048   1.048   1.048   1.048   1.048   1.048   1.048   1.048   1.048   1.048   1.048
    79.33    1.048   1.048   1.048   1.048   1.048   1.048   1.048   1.048   1.048   1.048   1.048   1.048   1.048   1.048   1.048   1.048   1.048   1.048   1.048   1.048   1.048   1.048   1.048   1.048   1.048   1.048   1.048   1.048   1.048   1.048   1.048
    74.00    1.048   1.048   1.048   1.048   1.048   1.048   1.048   1.048   1.048   1.048   1.048   1.048   1.048   1.048   1.048   1.048   1.048   1.048   1.048   1.048   1.048   1.048   1.048   1.048   1.048   1.048   1.048   1.048   1.048   1.048   1.048
    68.67    1.048   1.048   1.048   1.048   1.048   1.048   1.048   1.048   1.048   1.048   1.048   1.048   1.048   1.048   1.048   1.048   1.048   1.048   1.048   1.048   1.048   1.048   1.048   1.048   1.048   1.048   1.048   1.048   1.048   1.048   1.048
    63.33    1.048   1.048   1.048   1.048   1.048   1.048   1.048   1.048   1.048   1.048   1.048   1.048   1.048   1.048   1.048   1.048   1.048   1.048   1.048   1.048   1.048   1.048   1.048   1.048   1.048   1.048   1.048   1.048   1.048   1.048   1.048
    58.00    1.048   1.048   1.048   1.048   1.048   1.048   1.048   1.048   1.048   1.048   1.048   1.048   1.048   1.048   1.048   1.048   1.048   1.048   1.048   1.048   1.048   1.048   1.048   1.048   1.048   1.048   1.048   1.048   1.048   1.048   1.048
    52.67    1.048   1.048   1.048   1.048   1.048   1.048   1.048   1.048   1.048   1.048   1.048   1.048   1.048   1.048   1.048   1.048   1.048   1.048   1.048   1.048   1.048   1.048   1.048   1.048   1.048   1.048   1.048   1.048   1.048   1.048   1.048
    47.33    1.048   1.048   1.048   1.048   1.048   1.048   1.048   1.048   1.048   1.048   1.048   1.048   1.048   1.048   1.048   1.048   1.048   1.048   1.048   1.048   1.048   1.048   1.048   1.048   1.048   1.048   1.048   1.048   1.048   1.048   1.048
    42.00    1.048   1.048   1.048   1.048   1.048   1.048   1.048   1.048   1.048   1.048   1.048   1.048   1.048   1.048   1.048   1.048   1.048   1.048   1.048   1.048   1.048   1.048   1.048   1.048   1.048   1.048   1.048   1.048   1.048   1.048   1.048
    36.67    1.048   1.048   1.048   1.048   1.048   1.048   1.048   1.048   1.048   1.048   1.048   1.048   1.048   1.048   1.048   1.048   1.048   1.048   1.048   1.048   1.048   1.048   1.048   1.048   1.048   1.048   1.048   1.048   1.048   1.048   1.048
    31.33    1.048   1.048   1.048   1.048   1.048   1.048   1.048   1.048   1.048   1.048   1.048   1.048   1.048   1.048   1.048   1.048   1.048   1.048   1.048   1.048   1.048   1.048   1.048   1.048   1.048   1.048   1.048   1.048   1.048   1.048   1.048
    26.00    1.048   1.048   1.048   1.048   1.048   1.048   1.048   1.048   1.048   1.048   1.048   1.048   1.048   1.048   1.048   1.048   1.048   1.048   1.048   1.048   1.048   1.048   1.048   1.048   1.048   1.048   1.048   1.048   1.048   1.048   1.048
    20.67    1.048   1.048   1.048   1.048   1.048   1.048   1.048   1.048   1.048   1.048   1.048   1.048   1.048   1.048   1.048   1.048   1.048   1.048   1.048   1.048   1.048   1.048   1.048   1.048   1.048   1.048   1.048   1.048   1.048   1.048   1.048
    15.33    1.048   1.048   1.048   1.048   1.048   1.048   1.048   1.048   1.048   1.048   1.048   1.048   1.048   1.048   1.048   1.048   1.048   1.048   1.048   1.048   1.048   1.048   1.048   1.048   1.048   1.048   1.048   1.048   1.048   1.048   1.048
    10.00    1.048   1.048   1.048   1.048   1.048   1.048   1.048   1.048   1.048   1.048   1.048   1.048   1.048   1.048   1.048   1.048   1.048   1.048   1.048   1.048   1.048   1.048   1.048   1.048   1.048   1.048   1.048   1.048   1.048   1.048   1.048

   Mean standard deviation across all grid points:
      u component:    2.096 m/s
      v component:    1.677 m/s
      w component:    1.048 m/s


U-component (X) statistics from the interpolated hub point:

   Mean =  10.0000 m/s
   TI   =  20.9600 %


Normalizing Parameters for Binary Data (approximate statistics):

   UBar  =  10.0000 m/s
   TI(u) =  20.9600 %
   TI(v) =  16.7680 %
   TI(w) =  10.4800 %

   Height Offset =   0.0000 m
   Grid Base     =  10.0000 m

Creating a PERIODIC output file.
Creating a BLADED LEFT-HAND RULE output file.


Processing complete.  107.94 CPU seconds used.
